data/projects/lehigh2mgs/circuit_plusmg_0.dss
clear
set defaultbasefrequency=60
new object=circuit.lehigh basekv=115 pu=1.0001 phases=3 bus1=sourcebus angle=30 mvasc3=20000 mvasc1=21000
edit object=vsource.source basekv=115 bus1=sourcebus.1.2.3 pu=1.00 r1=0 x1=0.0001 r0=0 x0=0.0001
new object=vsource.secondsource basekv=4.16 bus1=680.1.2.3 pu=1.00 r1=0 x1=0.0001 r0=0 x0=0.0001
new object=transformer.sub phases=3 windings=2 xhl=0.008 buses=[sourcebus.1.2.3,650.1.2.3] conns=[delta,wye] kvs=[115,4.16] kvas=[5000,5000] %rs=[0.0005,0.0005]
new object=transformer.reg1 phases=1 bank=reg1 xhl=0.01 kvas=[1666,1666] buses=[650.1,rg60.1] kvs=[2.4,2.4] %loadloss=0.01
new object=regcontrol.reg1 transformer=reg1 winding=2 vreg=121 band=2 ptratio=20 ctprim=700 r=3 x=9
new object=transformer.reg2 phases=1 bank=reg1 xhl=0.01 kvas=[1666,1666] buses=[650.2,rg60.2] kvs=[2.4,2.4] %loadloss=0.01
new object=regcontrol.reg2 transformer=reg2 winding=2 vreg=121 band=2 ptratio=20 ctprim=700 r=3 x=9
new object=transformer.reg3 phases=1 bank=reg1 xhl=0.01 kvas=[1666,1666] buses=[650.3,rg60.3] kvs=[2.4,2.4] %loadloss=0.01
new object=regcontrol.reg3 transformer=reg3 winding=2 vreg=121 band=2 ptratio=20 ctprim=700 r=3 x=9
new object=transformer.xfm1 phases=3 windings=2 xhl=2 buses=[633.1.2.3,634.1.2.3] conns=[wye,wye] kvs=[4.16,0.480] kvas=[500,500] %rs=[0.55,0.55] xht=1 xlt=1
new object=linecode.mtx601 nphases=3 basefreq=60 rmatrix=[0.3465|0.1560,0.3375|0.1580,0.1535,0.3414] xmatrix=[1.0179|0.5017,1.0478|0.4236,0.3849,1.0348] units=mi
new object=linecode.mtx602 nphases=3 basefreq=60 rmatrix=[0.7526|0.1580,0.7475|0.1560,0.1535,0.7436] xmatrix=[1.1814|0.4236,1.1983|0.5017,0.3849,1.2112] units=mi
new object=linecode.mtx603 nphases=2 basefreq=60 rmatrix=[1.3238|0.2066,1.3294] xmatrix=[1.3569|0.4591,1.3471] units=mi
new object=linecode.mtx604 nphases=2 basefreq=60 rmatrix=[1.3238|0.2066,1.3294] xmatrix=[1.3569|0.4591,1.3471] units=mi
new object=linecode.mtx605 nphases=1 basefreq=60 rmatrix=[1.3292] xmatrix=[1.3475] units=mi
new object=linecode.mtx606 nphases=3 units=mi rmatrix=[0.791721|0.318476,0.781649|0.28345,0.318476,0.791721] xmatrix=[0.438352|0.0276838,0.396697|-0.0184204,0.0276838,0.438352] cmatrix=[383.948|0,383.948|0,0,383.948]
new object=linecode.mtx607 nphases=1 basefreq=60 rmatrix=[1.3425] xmatrix=[0.5124] cmatrix=[236] units=mi
new object=loadshape.solar_634_shape npts=8760 interval=1 useactual=yes mult=[0.0,0.0,0.0,0.0,0.0,0.0,0.0,0.0,6.328,19.188,27.086,83.232,19.087,44.603,66.727,71.841,35.895,2.379,0.0,0.0,0.0,0.0,0.0,0.0,0.0,0.0,0.0,0.0,0.0,0.0,0.0,0.0,16.606,42.173,59.032,2.329,126.721,45.312,164.54,113.153,59.741,5.113000000000001,0.0,0.0,0.0,0.0,0.0,0.0,0.0,0.0,0.0,0.0,0.0,0.0,0.0,0.0,48.704,113.557,150.87,63.943,113.71,113.406,92.649,80.447,42.223,3.341,0.0,0.0,0.0,0.0,0.0,0.0,0.0,0.0,0.0,0.0,0.0,0.0,0.0,0.0,74.119,169.805,241.08899999999997,285.59099999999995,302.551,294.55199999999996,259.113,198.612,108.242,21.264,0.0,0.0,0.0,0.0,0.0,0.0,0.0,0.0,0.0,0.0,0.0,0.0,0.0,0.0,80.599,179.829,253.037,297.387,313.587,302.5,264.53,201.65,109.254,20.757,0.0,0.0,0.0,0.0,0.0,0.0,0.0,0.0,0.0,0.0,0.0,0.0,0.0,0.0,63.689,150.82,236.431,211.877,239.519,247.063,248.025,188.183,101.863,19.036,0.0,0.0,0.0,0.0,0.0,0.0,0.0,0.0,0.0,0.0,0.0,0.0,0.0,0.0,64.652,64.196,229.394,263.112,235.621,225.597,190.157,97.205,51.336,5.468,0.0,0.0,0.0,0.0,0.0,0.0,0.0,0.0,0.0,0.0,0.0,0.0,0.0,0.0,65.816,153.453,40.502,53.362,119.431,138.365,113.355,73.461,38.983,4.506,0.0,0.0,0.0,0.0,0.0,0.0,0.0,0.0,0.0,0.0,0.0,0.0,0.0,0.0,67.639,155.275,83.232,177.045,138.669,64.753,83.029,69.461,35.996,17.011,0.0,0.0,0.0,0.0,0.0,0.0,0.0,0.0,0.0,0.0,0.0,0.0,0.0,0.0,31.339,77.46,124.797,213.902,124.139,162.11,164.641,132.847,74.119,13.011,0.0,0.0,0.0,0.0,0.0,0.0,0.0,0.0,0.0,0.0,0.0,0.0,0.0,0.0,81.612,180.639,252.834,296.324,312.322,302.551,267.213,208.029,123.481,30.426999999999996,0.0,0.0,0.0,0.0,0.0,0.0,0.0,0.0,0.0,0.0,0.0,0.0,0.0,0.0,75.385,171.222,240.27899999999997,291.362,309.183,302.298,267.871,202.814,120.595,29.972,0.0,0.0,0.0,0.0,0.0,0.0,0.0,0.0,0.0,0.0,0.0,0.0,0.0,0.0,73.764,169.29899999999998,238.406,219.926,244.126,222.002,200.33400000000003,159.831,94.826,22.934,0.0,0.0,0.0,0.0,0.0,0.0,0.0,0.0,0.0,0.0,0.0,0.0,0.0,0.0,30.731,72.803,131.936,168.185,192.689,176.842,104.597,85.156,48.046,7.847,0.0,0.0,0.0,0.0,0.0,0.0,0.0,0.0,0.0,0.0,0.0,0.0,0.0,0.0,16.201,43.489,202.004,251.822,290.856,288.527,257.745,201.245,117.304,29.668,0.0,0.0,0.0,0.0,0.0,0.0,0.0,0.0,0.0,0.0,0.0,0.0,0.0,0.0,67.082,155.883,219.876,185.955,218.56,284.578,171.982,78.574,43.995,7.949,0.0,0.0,0.0,0.0,0.0,0.0,0.0,0.0,0.0,0.0,0.0,0.0,0.0,0.0,69.36,166.818,243.519,296.779,308.069,300.171,266.555,209.75,122.823,31.997,0.0,0.0,0.0,0.0,0.0,0.0,0.0,0.0,0.0,0.0,0.0,0.0,0.0,0.0,75.739,170.615,246.86,292.375,310.601,302.804,271.769,212.788,125.0,33.009,0.0,0.0,0.0,0.0,0.0,0.0,0.0,0.0,0.0,0.0,0.0,0.0,0.0,0.0,79.89,179.12099999999998,251.214,294.147,322.245,313.993,279.06,213.446,131.328,35.996,0.0,0.0,0.0,0.0,0.0,0.0,0.0,0.0,0.0,0.0,0.0,0.0,0.0,0.0,78.422,174.919,244.582,286.401,302.045,292.982,261.188,205.953,124.797,33.566,0.0,0.0,0.0,0.0,0.0,0.0,0.0,0.0,0.0,0.0,0.0,0.0,0.0,0.0,20.2,50.577,76.6,43.742,126.822,33.819,35.287,0.506,0.0,0.0,0.0,0.0,0.0,0.0,0.0,0.0,0.0,0.0,0.0,0.0,0.0,0.0,0.0,0.0,18.631,54.728,154.667,165.198,311.866,305.13300000000004,144.188,125.101,72.752,16.15,0.0,0.0,0.0,0.0,0.0,0.0,0.0,0.0,0.0,0.0,0.0,0.0,0.0,0.0,21.061,54.627,63.487,158.009,333.383,327.763,292.526,230.913,139.327,39.49,0.0,0.0,0.0,0.0,0.0,0.0,0.0,0.0,0.0,0.0,0.0,0.0,0.0,0.0,83.536,183.93,256.327,299.715,317.789,310.094,277.744,220.18,137.91,40.401,0.0,0.0,0.0,0.0,0.0,0.0,0.0,0.0,0.0,0.0,0.0,0.0,0.0,0.0,79.587,175.779,244.532,286.603,303.867,295.564,265.39,211.775,132.391,39.034,0.0,0.0,0.0,0.0,0.0,0.0,0.0,0.0,0.0,0.0,0.0,0.0,0.0,0.0,52.805,121.051,139.53,207.117,231.874,222.205,202.308,148.795,91.13,26.023,0.0,0.0,0.0,0.0,0.0,0.0,0.0,0.0,0.0,0.0,0.0,0.0,0.0,0.0,62.778,146.668,142.112,263.973,278.503,202.055,28.048,196.436,116.039,32.655,0.0,0.0,0.0,0.0,0.0,0.0,0.0,0.0,0.0,0.0,0.0,0.0,0.0,0.0,17.77,28.605,43.135,66.677,52.653,36.553,37.059,14.378,7.392,0.152,0.0,0.0,0.0,0.0,0.0,0.0,0.0,0.0,0.0,0.0,0.0,0.0,0.0,0.0,83.637,182.26,253.746,297.944,315.967,308.93,279.515,224.635,138.264,43.793,0.0,0.0,0.0,0.0,0.0,0.0,0.0,0.0,0.0,0.0,0.0,0.0,0.0,0.0,79.435,175.627,245.746,287.869,305.487,299.209,269.44,172.944,115.077,43.489,0.0,0.0,0.0,0.0,0.0,0.0,0.0,0.0,0.0,0.0,0.0,0.0,0.0,0.0,24.808,76.093,129.556,131.126,168.691,159.325,143.833,103.483,63.487,18.226,0.0,0.0,0.0,0.0,0.0,0.0,0.0,0.0,0.0,0.0,0.0,0.0,0.0,0.0,83.586,183.728,260.378,305.032,323.865,318.245,285.844,230.406,143.479,47.894,0.0,0.0,0.0,0.0,0.0,0.0,0.0,0.0,0.0,0.0,0.0,0.0,0.0,0.0,83.89,178.867,248.126,290.754,308.12,303.361,274.706,222.35700000000003,143.428,48.805,0.0,0.0,0.0,0.0,0.0,0.0,0.0,0.0,0.0,0.0,0.0,0.0,0.0,0.0,83.282,72.246,169.451,210.56,240.27899999999997,235.36799999999997,202.764,58.07,41.97,27.693,0.0,0.0,0.0,0.0,0.0,0.0,0.0,0.0,0.0,0.0,0.0,0.0,0.0,0.0,0.0,64.348,173.501,243.317,317.03,316.777,290.248,236.026,148.94700000000003,52.4,0.0,0.0,0.0,0.0,0.0,0.0,0.0,0.0,0.0,0.0,0.0,0.0,0.0,0.0,60.146,160.388,239.924,320.473,270.808,304.424,298.855,232.128,89.712,43.641,0.0,0.0,0.0,0.0,0.0,0.0,0.0,0.0,0.0,0.0,0.0,0.0,0.0,0.0,44.249,58.728,44.249,66.677,44.147,184.335,167.881,121.861,42.325,5.822,0.0,0.0,0.0,0.0,0.0,0.0,0.0,0.0,0.0,0.0,0.0,0.0,0.0,0.0,3.291,21.264,33.262,119.026,143.276,66.727,96.648,42.122,25.567,48.147,0.0,0.0,0.0,0.0,0.0,0.0,0.0,0.0,0.0,0.0,0.0,0.0,0.0,0.0,20.96,19.947,77.359,151.529,138.973,173.856,190.006,229.141,148.136,53.159,0.0,0.0,0.0,0.0,0.0,0.0,0.0,0.0,0.0,0.0,0.0,0.0,0.0,0.0,16.808,42.679,79.84,297.336,111.583,110.976,125.962,94.775,2.329,49.413,0.0,0.0,0.0,0.0,0.0,0.0,0.0,0.0,0.0,0.0,0.0,0.0,0.0,0.0,26.883,119.481,258.252,308.272,325.435,323.865,294.298,239.57,155.072,58.475,0.0,0.0,0.0,0.0,0.0,0.0,0.0,0.0,0.0,0.0,0.0,0.0,0.0,8.556,98.572,196.739,269.542,312.221,330.092,323.207,293.843,240.178,160.388,61.462,0.0,0.0,0.0,0.0,0.0,0.0,0.0,0.0,0.0,0.0,0.0,0.0,0.0,8.708,95.028,189.601,257.998,299.716,317.587,312.778,294.147,233.09,154.769,59.589,0.0,0.0,0.0,0.0,0.0,0.0,0.0,0.0,0.0,0.0,0.0,0.0,0.0,10.986,99.888,196.79,273.946,307.107,323.91599999999994,272.124,258.049,197.802,156.186,33.718,0.0,0.0,0.0,0.0,0.0,0.0,0.0,0.0,0.0,0.0,0.0,0.0,0.0,0.203,55.488,127.025,179.526,204.384,241.24,255.315,169.805,149.352,105.862,35.895,0.0,0.0,0.0,0.0,0.0,0.0,0.0,0.0,0.0,0.0,0.0,0.0,0.0,2.43,89.408,179.272,251.214,295.058,313.2830000000001,308.474,281.287,227.369,145.504,56.247,0.0,0.0,0.0,0.0,0.0,0.0,0.0,0.0,0.0,0.0,0.0,0.0,0.0,0.0,13.315,18.884,59.893,83.789,89.357,108.191,68.904,59.791,63.639,23.643,0.0,0.0,0.0,0.0,0.0,0.0,0.0,0.0,0.0,0.0,0.0,0.0,0.0,0.0,1.468,65.31,116.19,150.415,227.47,259.923,203.371,251.569,94.927,32.503,0.0,0.0,0.0,0.0,0.0,0.0,0.0,0.0,0.0,0.0,0.0,0.0,0.0,10.682,33.161,71.486,126.012,174.412,337.332,325.687,296.728,243.873,164.54,66.373,0.0,0.0,0.0,0.0,0.0,0.0,0.0,0.0,0.0,0.0,0.0,0.0,0.0,13.669,101.407,196.131,264.023,305.487,320.22,313.891,287.059,235.824,159.325,64.601,0.0,0.0,0.0,0.0,0.0,0.0,0.0,0.0,0.0,0.0,0.0,0.0,0.0,12.454,38.578,161.401,195.068,301.69,317.537,311.917,284.78,233.74799999999996,158.161,61.411,0.0,0.0,0.0,0.0,0.0,0.0,0.0,0.0,0.0,0.0,0.0,0.0,0.0,5.517999999999999,20.504,100.901,94.927,131.075,179.93099999999998,146.719,187.17,92.244,28.757,0.051,0.0,0.0,0.0,0.0,0.0,0.0,0.0,0.0,0.0,0.0,0.0,0.0,0.0,0.0,2.633,1.316,15.846,102.774,71.334,164.59,178.564,118.215,12.961,60.753,0.0,0.0,0.0,0.0,0.0,0.0,0.0,0.0,0.0,0.0,0.0,0.0,0.0,18.277,114.52,216.788,290.4,336.269,353.027,333.889,305.082,251.214,172.438,72.904,0.0,0.0,0.0,0.0,0.0,0.0,0.0,0.0,0.0,0.0,0.0,0.0,0.0,19.339999999999996,112.292,206.46,273.693,314.499,330.801,323.91599999999994,295.514,244.025,167.021,70.322,0.0,0.0,0.0,0.0,0.0,0.0,0.0,0.0,0.0,0.0,0.0,0.0,0.0,12.859,101.66,159.477,220.281,267.213,267.365,267.466,160.33800000000002,112.343,154.009,67.487,0.0,0.0,0.0,0.0,0.0,0.0,0.0,0.0,0.0,0.0,0.0,0.0,0.0,7.341,62.525,140.492,167.729,204.384,199.473,246.152,182.968,92.395,28.908,28.655,0.0,0.0,0.0,0.0,0.0,0.0,0.0,0.0,0.0,0.0,0.0,0.0,0.0,15.695,76.954,103.685,171.78000000000003,238.558,235.267,216.484,187.424,181.247,105.204,24.403,0.0,0.0,0.0,0.0,0.0,0.0,0.0,0.0,0.0,0.0,0.0,0.0,0.0,8.354,46.324,122.114,126.012,157.705,191.929,222.863,196.739,174.26,126.367,39.236,0.0,0.0,0.0,0.0,0.0,0.0,0.0,0.0,0.0,0.0,0.0,0.0,0.0,22.58,114.114,204.637,269.44,305.99399999999997,331.206,321.486,289.236,233.242,152.592,66.272,0.0,0.0,0.0,0.0,0.0,0.0,0.0,0.0,0.0,0.0,0.0,0.0,0.0,24.706,122.266,220.534,291.463,334.851,351.558,344.673,282.654,259.517,164.742,79.08,0.0,0.0,0.0,0.0,0.0,0.0,0.0,0.0,0.0,0.0,0.0,0.0,0.0,24.048,111.786,190.765,291.97,330.801,344.876,335.003,298.804,232.432,154.769,66.525,0.0,0.0,0.0,0.0,0.0,0.0,0.0,0.0,0.0,0.0,0.0,0.0,0.0,25.567,11.442,223.521,97.914,119.886,165.35,353.685,315.613,260.378,174.868,78.777,0.0,0.0,0.0,0.0,0.0,0.0,0.0,0.0,0.0,0.0,0.0,0.0,0.0,28.301,125.911,218.813,283.717,323.207,338.8,333.282,302.956,252.47999999999996,175.324,79.08,0.0,0.0,0.0,0.0,0.0,0.0,0.0,0.0,0.0,0.0,0.0,0.0,0.0,30.022,133.1,230.103,301.0319999999999,343.458,359.75999999999993,351.508,320.625,257.391,180.184,82.523,4.202,0.0,0.0,0.0,0.0,0.0,0.0,0.0,0.0,0.0,0.0,0.0,0.0,30.377,129.86,225.647,291.919,330.042,332.117,325.283,295.514,241.899,168.843,76.043,2.886,0.0,0.0,0.0,0.0,0.0,0.0,0.0,0.0,0.0,0.0,0.0,0.0,29.87,116.747,221.091,288.628,326.852,339.813,335.2559999999999,290.501,239.114,165.502,74.22,2.582,0.0,0.0,0.0,0.0,0.0,0.0,0.0,0.0,0.0,0.0,0.0,0.0,31.339,128.24,219.926,287.21099999999996,326.497,343.813,337.94,308.474,256.733,173.45,79.08,4.556,0.0,0.0,0.0,0.0,0.0,0.0,0.0,0.0,0.0,0.0,0.0,0.0,28.504,110.217,219.876,255.821,322.954,335.307,327.308,297.539,243.468,124.696,76.093,3.848,0.0,0.0,0.0,0.0,0.0,0.0,0.0,0.0,0.0,0.0,0.0,0.0,31.895,124.747,169.046,195.676,207.877,304.576,329.181,203.118,240.27899999999997,163.021,75.233,3.443,0.0,0.0,0.0,0.0,0.0,0.0,0.0,0.0,0.0,0.0,0.0,0.0,27.187,97.559,188.132,279.819,320.827,255.771,279.667,241.696,219.673,159.477,76.296,4.303,0.0,0.0,0.0,0.0,0.0,0.0,0.0,0.0,0.0,0.0,0.0,0.0,23.795,84.953,85.206,48.451,130.467,176.944,329.029,299.513,248.785,173.602,78.068,5.62,0.0,0.0,0.0,0.0,0.0,0.0,0.0,0.0,0.0,0.0,0.0,0.0,36.806,133.606,223.015,216.231,325.485,337.433,332.32,304.221,253.341,177.804,81.257,6.632,0.0,0.0,0.0,0.0,0.0,0.0,0.0,0.0,0.0,0.0,0.0,0.0,38.425999999999995,133.303,218.56,278.553,323.106,338.243,329.231,261.441,250.151,170.514,81.055,6.582,0.0,0.0,0.0,0.0,0.0,0.0,0.0,0.0,0.0,0.0,0.0,0.0,37.92,130.822,191.271,207.168,265.643,296.121,264.732,257.441,219.673,107.938,51.741,2.582,0.0,0.0,0.0,0.0,0.0,0.0,0.0,0.0,0.0,0.0,0.0,0.0,5.265,21.972,34.731,65.462,35.085,23.289,79.89,110.672,8.404,62.626,29.718,0.051,0.0,0.0,0.0,0.0,0.0,0.0,0.0,0.0,0.0,0.0,0.0,0.0,20.96,65.208,104.344,97.762,146.314,119.026,111.938,122.215,117.76,36.351,16.808,0.0,0.0,0.0,0.0,0.0,0.0,0.0,0.0,0.0,0.0,0.0,0.0,0.0,6.227,26.377,98.471,142.618,240.735,330.396,266.808,259.315,242.506,105.862,50.83,3.038,0.0,0.0,0.0,0.0,0.0,0.0,0.0,0.0,0.0,0.0,0.0,0.0,45.008,48.856,150.06,238.051,338.244,352.115,348.419,321.688,268.985,98.724,49.818,4.101,0.0,0.0,0.0,0.0,0.0,0.0,0.0,0.0,0.0,0.0,0.0,0.0,53.665,162.464,257.34,324.928,362.19,374.898,368.468,334.041,276.933,194.714,91.13,9.923,0.0,0.0,0.0,0.0,0.0,0.0,0.0,0.0,0.0,0.0,0.0,0.0,53.007,156.642,244.683,304.779,338.091,347.356,344.774,310.803,256.378,180.791,87.839,9.467,0.0,0.0,0.0,0.0,0.0,0.0,0.0,0.0,0.0,0.0,0.0,0.0,52.349,152.237,236.887,307.513,343.661,189.955,352.014,319.41,266.858,183.475,89.915,11.29,0.0,0.0,0.0,0.0,0.0,0.0,0.0,0.0,0.0,0.0,0.0,0.0,51.59,149.554,235.36799999999997,296.172,159.123,270.90900000000005,275.87,207.523,132.543,103.129,50.881,4.81,0.0,0.0,0.0,0.0,0.0,0.0,0.0,0.0,0.0,0.0,0.0,0.0,5.721,12.657,13.872,46.98199999999999,104.445,143.22600000000003,184.234,145.352,143.833,68.195,34.224,2.177,0.0,0.0,0.0,0.0,0.0,0.0,0.0,0.0,0.0,0.0,0.0,0.0,2.228,9.569,35.844,55.64,57.614,61.563,42.325,47.792,41.16,22.479,10.379,0.0,0.0,0.0,0.0,0.0,0.0,0.0,0.0,0.0,0.0,0.0,0.0,0.0,0.962,0.911,16.049,27.035,47.944,34.427,41.11,24.706,50.425,41.768,20.2,0.506,0.0,0.0,0.0,0.0,0.0,0.0,0.0,0.0,0.0,0.0,0.0,0.0,54.83,149.605,230.356,286.957,180.184,155.984,209.042,164.236,259.922,85.611,88.345,11.847,0.0,0.0,0.0,0.0,0.0,0.0,0.0,0.0,0.0,0.0,0.0,0.0,15.239,74.828,150.415,172.438,150.51599999999996,164.185,192.993,165.654,222.154,127.177,65.208,9.062,0.0,0.0,0.0,0.0,0.0,0.0,0.0,0.0,0.0,0.0,0.0,0.0,60.753,158.616,216.939,254.303,297.184,311.006,298.602,271.719,221.8,130.619,66.525,9.721,0.0,0.0,0.0,0.0,0.0,0.0,0.0,0.0,0.0,0.0,0.0,0.0,58.779,136.239,172.033,193.549,203.017,225.799,272.832,231.773,133.859,73.916,36.705,3.898,0.0,0.0,0.0,0.0,0.0,0.0,0.0,0.0,0.0,0.0,0.0,0.0,29.01,70.575,111.685,299.868,331.409,345.989,336.521,308.88,257.087,177.146,42.375,12.454,0.0,0.0,0.0,0.0,0.0,0.0,0.0,0.0,0.0,0.0,0.0,0.0,61.006,152.339,141.2,196.992,252.784,330.902,320.321,292.071,243.975,173.501,50.526,7.24,0.0,0.0,0.0,0.0,0.0,0.0,0.0,0.0,0.0,0.0,0.0,0.0,10.379,52.703,92.041,100.293,147.731,213.142,233.596,226.761,257.087,120.949,39.338,5.164,0.0,0.0,0.0,0.0,0.0,0.0,0.0,0.0,0.0,0.0,0.0,0.0,68.297,171.071,257.695,317.941,352.774,366.24,356.621,324.928,271.66799999999995,193.549,96.344,14.378,0.0,0.0,0.0,0.0,0.0,0.0,0.0,0.0,0.0,0.0,0.0,0.709,69.765,166.362,249.948,299.969,334.801,347.761,351.204,308.626,257.037,183.272,93.357,14.885,0.0,0.0,0.0,0.0,0.0,0.0,0.0,0.0,0.0,0.0,0.0,2.582,73.056,171.425,253.493,310.753,342.091,351.66,343.255,314.701,264.833,189.803,97.509,15.846,0.0,0.0,0.0,0.0,0.0,0.0,0.0,0.0,0.0,0.0,0.0,1.873,63.031,121.658,183.626,206.46,256.834,220.585,289.539,157.148,164.287,179.424,87.94,14.328,0.0,0.0,0.0,0.0,0.0,0.0,0.0,0.0,0.0,0.0,0.0,0.0,58.323,90.016,83.738,92.547,146.972,191.676,114.216,107.077,110.014,68.297,20.707,8.455,0.0,0.0,0.0,0.0,0.0,0.0,0.0,0.0,0.0,0.0,0.0,0.0,23.39,69.917,66.272,316.119,359.558,375.30299999999994,356.216,327.105,274.25,196.081,96.951,15.897,0.0,0.0,0.0,0.0,0.0,0.0,0.0,0.0,0.0,0.0,0.0,5.721,80.65,185.854,277.895,340.319,377.125,388.618,376.163,340.927,276.579,146.263,79.992,17.112,0.0,0.0,0.0,0.0,0.0,0.0,0.0,0.0,0.0,0.0,0.0,5.974,80.903,182.665,268.377,326.396,360.469,371.404,360.114,327.966,273.44,190.461,98.926,17.568,0.0,0.0,0.0,0.0,0.0,0.0,0.0,0.0,0.0,0.0,0.0,7.037,83.181,183.576,263.568,318.093,348.824,358.13999999999993,346.901,316.727,266.555,191.524,99.078,17.112,0.0,0.0,0.0,0.0,0.0,0.0,0.0,0.0,0.0,0.0,0.0,7.544,81.662,180.842,262.96,318.448,306.449,363.759,353.786,323.865,271.719,189.752,98.42,17.315,0.0,0.0,0.0,0.0,0.0,0.0,0.0,0.0,0.0,0.0,0.0,7.999,79.08,174.362,178.665,160.33800000000002,180.386,81.105,253.037,315.71399999999994,260.428,184.79099999999997,92.8,17.618,0.0,0.0,0.0,0.0,0.0,0.0,0.0,0.0,0.0,0.0,0.0,7.746,76.752,110.672,197.751,305.791,262.96,351.71,340.775,313.183,264.327,191.221,97.559,17.872,0.0,0.0,0.0,0.0,0.0,0.0,0.0,0.0,0.0,0.0,0.0,9.012,78.118,168.033,200.131,243.418,106.875,230.052,291.008,243.772,141.859,92.041,43.033,16.454,0.0,0.0,0.0,0.0,0.0,0.0,0.0,0.0,0.0,0.0,0.0,7.544,13.264,53.311,69.36,85.763,163.173,241.848,143.529,135.075,81.561,68.195,41.11,17.872,0.0,0.0,0.0,0.0,0.0,0.0,0.0,0.0,0.0,0.0,0.0,4.86,27.896,179.12099999999998,190.51199999999997,226.711,240.583,226.913,255.366,228.077,213.497,147.833,95.281,19.39,0.0,0.0,0.0,0.0,0.0,0.0,0.0,0.0,0.0,0.0,0.0,0.506,4.708,19.137,29.516,30.579,48.805,60.247,140.491,123.785,93.813,60.703,17.365,0.0,0.0,0.0,0.0,0.0,0.0,0.0,0.0,0.0,0.0,0.0,0.0,12.252,89.56,187.373,260.985,312.423,343.154,352.824,342.5969999999999,315.157,264.631,192.385,101.964,19.745,0.0,0.0,0.0,0.0,0.0,0.0,0.0,0.0,0.0,0.0,0.0,13.315,89.611,181.703,255.67,307.259,280.022,350.141,336.826,309.031,258.252,58.019,100.445,20.555,0.0,0.0,0.0,0.0,0.0,0.0,0.0,0.0,0.0,0.0,0.0,13.669,92.598,193.094,275.111,331.864,364.62,373.936,320.321,253.594,279.7679999999999,200.131,86.624,20.605,0.0,0.0,0.0,0.0,0.0,0.0,0.0,0.0,0.0,0.0,0.0,14.378,93.357,192.841,274.14899999999994,330.7,364.013,373.784,364.114,332.573,278.857,201.498,64.196,21.01,0.0,0.0,0.0,0.0,0.0,0.0,0.0,0.0,0.0,0.0,0.0,14.986,93.712,186.057,269.137,324.422,356.368,365.582,355.355,323.409,182.766,191.018,101.002,22.479,0.0,0.0,0.0,0.0,0.0,0.0,0.0,0.0,0.0,0.0,0.0,15.796,94.319,186.664,260.935,311.967,341.028,349.229,304.373,312.929,261.947,191.626,104.242,22.985,0.0,0.0,0.0,0.0,0.0,0.0,0.0,0.0,0.0,0.0,0.0,16.15,96.395,188.74,269.39,322.701,352.723,363.405,353.634,246.557,273.491,197.853,104.09,22.529,0.0,0.0,0.0,0.0,0.0,0.0,0.0,0.0,0.0,0.0,0.0,8.505,35.591,114.925,196.537,247.417,264.073,277.895,331.459,301.842,252.885,183.728,98.167,21.972,0.0,0.0,0.0,0.0,0.0,0.0,0.0,0.0,0.0,0.0,0.0,16.454,63.993,138.72,189.70199999999997,179.981,311.461,159.52800000000002,302.146,195.271,179.424,104.749,54.577,17.568,0.0,0.0,0.0,0.0,0.0,0.0,0.0,0.0,0.0,0.0,0.0,4.911,31.592,150.51599999999996,111.28,216.889,252.176,257.138,123.633,121.304,121.506,87.788,49.969,14.885,0.0,0.0,0.0,0.0,0.0,0.0,0.0,0.0,0.0,0.0,0.0,17.517,46.274,133.505,185.297,122.671,279.161,295.868,228.888,201.042,131.986,92.446,47.387,15.695,0.0,0.0,0.0,0.0,0.0,0.0,0.0,0.0,0.0,0.0,0.0,0.506,47.134,11.189,17.213,66.12,133.455,172.185,136.138,122.468,139.327,113.001,64.095,18.428,0.0,0.0,0.0,0.0,0.0,0.0,0.0,0.0,0.0,0.0,0.0,0.0,56.652,59.893,57.412,225.799,190.51199999999997,111.836,142.567,93.104,81.46,76.245,19.39,10.632,0.0,0.0,0.0,0.0,0.0,0.0,0.0,0.0,0.0,0.0,0.0,5.012,15.391,38.072,143.124,324.068,350.85,360.874,309.942,324.776,274.25,195.42299999999997,106.824,24.251,0.0,0.0,0.0,0.0,0.0,0.0,0.0,0.0,0.0,0.0,0.0,19.644,102.217,193.094,263.213,311.967,339.661,346.799,335.357,306.551,257.847,188.942,103.078,22.985,0.0,0.0,0.0,0.0,0.0,0.0,0.0,0.0,0.0,0.0,0.0,19.542,101.053,190.461,258.809,304.981,331.46,338.59799999999996,329.688,303.361,256.885,189.398,104.293,23.795,0.0,0.0,0.0,0.0,0.0,0.0,0.0,0.0,0.0,0.0,0.0,20.909,101.964,192.385,262.403,310.955,338.091,345.331,349.989,308.019,261.796,193.549,106.672,24.706,0.0,0.0,0.0,0.0,0.0,0.0,0.0,0.0,0.0,0.0,0.0,21.314,101.407,189.854,257.847,306.5,332.674,339.509,306.854,302.196,255.265,186.917,103.331,25.263,0.0,0.0,0.0,0.0,0.0,0.0,0.0,0.0,0.0,0.0,0.0,21.517,100.85,183.171,264.377,313.233,304.07,351.356,339.914,310.297,262.808,187.626,103.837,25.415,0.0,0.0,0.0,0.0,0.0,0.0,0.0,0.0,0.0,0.0,0.0,19.644,85.054,160.49,229.343,164.742,176.994,304.778,300.172,275.465,203.422,184.892,90.927,25.972,0.0,0.0,0.0,0.0,0.0,0.0,0.0,0.0,0.0,0.0,0.0,23.846,90.218,149.149,204.282,210.56,255.72,285.135,270.604,215.775,125.05,90.623,64.905,18.732,0.0,0.0,0.0,0.0,0.0,0.0,0.0,0.0,0.0,0.0,0.0,5.62,64.905,120.342,161.198,229.039,242.304,271.516,320.776,290.451,245.139,179.222,98.218,27.136,0.0,0.0,0.0,0.0,0.0,0.0,0.0,0.0,0.0,0.0,0.0,18.023,56.652,117.76,169.096,156.946,162.565,242.861,231.925,262.454,211.775,181.854,101.154,28.098,0.0,0.0,0.0,0.0,0.0,0.0,0.0,0.0,0.0,0.0,0.0,24.403,100.749,188.639,259.416,242.152,325.637,331.965,321.43499999999995,293.235,128.695,184.285,101.762,27.795,0.0,0.0,0.0,0.0,0.0,0.0,0.0,0.0,0.0,0.0,0.0,23.694,99.838,186.005,152.895,261.491,335.459,343.762,321.233,251.113,197.347,148.744,80.549,21.112,0.0,0.0,0.0,0.0,0.0,0.0,0.0,0.0,0.0,0.0,0.0,14.53,3.848,54.374,107.077,242.152,164.945,143.681,221.496,224.078,116.696,79.03,56.349,29.364,0.0,0.0,0.0,0.0,0.0,0.0,0.0,0.0,0.0,0.0,0.0,26.377,112.9,209.598,283.515,334.091,362.443,368.519,354.951,324.473,273.845,202.612,110.824,29.718,0.0,0.0,0.0,0.0,0.0,0.0,0.0,0.0,0.0,0.0,0.0,26.428,108.596,195.17,263.719,309.79,335.611,342.445,334.243,304.475,259.214,191.575,108.343,29.617000000000004,0.0,0.0,0.0,0.0,0.0,0.0,0.0,0.0,0.0,0.0,0.0,14.986,106.926,192.841,260.935,308.676,335.104,341.939,240.684,306.551,257.948,190.765,107.229,29.212,0.0,0.0,0.0,0.0,0.0,0.0,0.0,0.0,0.0,0.0,0.0,26.377,103.483,186.917,252.885,298.652,324.118,330.953,286.299,298.754,61.513,96.8,106.369,31.237,0.0,0.0,0.0,0.0,0.0,0.0,0.0,0.0,0.0,0.0,0.0,27.592,84.599,184.842,249.999,294.703,320.22,283.869,216.129,83.637,225.192,146.111,104.9,31.845,0.0,0.0,0.0,0.0,0.0,0.0,0.0,0.0,0.0,0.0,0.0,27.339,101.66,184.234,249.949,295.868,321.89,179.424,325.08,293.64,249.037,184.285,89.712,31.085,0.0,0.0,0.0,0.0,0.0,0.0,0.0,0.0,0.0,0.0,0.0,26.985,103.685,191.069,259.973,307.61400000000003,334.851,342.445,334.041,305.943,258.454,185.956,106.824,31.339,0.0,0.0,0.0,0.0,0.0,0.0,0.0,0.0,0.0,0.0,0.0,27.288,102.521,184.386,257.34,307.158,334.091,341.382,331.611,303.31,248.379,183.576,105.862,31.592,0.0,0.0,0.0,0.0,0.0,0.0,0.0,0.0,0.0,0.0,0.0,17.011,99.129,168.033,225.344,293.69100000000003,296.071,270.959,298.906,253.239,226.052,164.337,104.192,31.997,0.0,0.0,0.0,0.0,0.0,0.0,0.0,0.0,0.0,0.0,0.0,27.946,86.675,181.449,244.785,288.476,312.727,321.131,312.828,172.64,201.042,179.475,87.181,33.364,0.0,0.0,0.0,0.0,0.0,0.0,0.0,0.0,0.0,0.0,0.0,28.706,99.635,178.31100000000004,241.848,286.704,312.271,320.929,311.613,284.426,209.902,166.261,79.637,30.174,0.0,0.0,0.0,0.0,0.0,0.0,0.0,0.0,0.0,0.0,0.0,24.656,101.61,159.426,207.927,261.036,224.989,234.507,249.746,222.306,220.18,162.262,63.335,31.035,0.0,0.0,0.0,0.0,0.0,0.0,0.0,0.0,0.0,0.0,0.0,23.592,97.104,157.3,214.408,261.542,283.16,305.082,284.882,260.732,251.923,188.335,109.71,31.136,0.0,0.0,0.0,0.0,0.0,0.0,0.0,0.0,0.0,0.0,0.0,25.921,79.485,157.502,213.395,248.48,271.162,291.615,273.187,269.39,221.293,145.959,97.458,31.693,0.0,0.0,0.0,0.0,0.0,0.0,0.0,0.0,0.0,0.0,0.0,25.972,97.914,141.2,208.738,235.874,203.067,107.888,196.131,246.101,197.903,154.769,96.851,32.149,0.0,0.0,0.0,0.0,0.0,0.0,0.0,0.0,0.0,0.0,0.0,26.833,95.433,168.641,211.72499999999997,260.175,271.365,294.146,264.985,234.811,187.829,148.136,94.421,12.809,0.0,0.0,0.0,0.0,0.0,0.0,0.0,0.0,0.0,0.0,0.0,24.504,102.268,182.411,245.898,289.691,314.549,321.739,313.385,287.514,245.392,184.234,108.039,34.68,0.0,0.0,0.0,0.0,0.0,0.0,0.0,0.0,0.0,0.0,0.0,25.162,101.66,179.779,243.064,287.008,311.36,151.782,173.045,214.813,242.659,179.981,106.014,32.199,0.0,0.0,0.0,0.0,0.0,0.0,0.0,0.0,0.0,0.0,0.0,29.465,55.589,175.83,237.899,281.743,238.001,222.103,138.922,33.566,112.95,124.291,87.738,32.857,0.0,0.0,0.0,0.0,0.0,0.0,0.0,0.0,0.0,0.0,0.0,27.086,104.293,188.031,254.303,300.526,326.953,334.801,280.528,302.753,256.328,192.891,113.71,35.085,0.0,0.0,0.0,0.0,0.0,0.0,0.0,0.0,0.0,0.0,0.0,28.351,100.698,178.462,240.531,284.173,308.93,317.537,310.55,285.692,243.873,133.91,91.332,36.351,0.0,0.0,0.0,0.0,0.0,0.0,0.0,0.0,0.0,0.0,0.0,27.693,102.015,115.583,244.379,158.87,315.765,319.055,243.468,287.616,244.734,185.652,110.419,35.844,0.0,0.0,0.0,0.0,0.0,0.0,0.0,0.0,0.0,0.0,0.0,27.693,100.952,179.576,243.063,284.123,232.988,321.181,309.538,285.033,243.519,183.019,109.457,36.857,0.0,0.0,0.0,0.0,0.0,0.0,0.0,0.0,0.0,0.0,0.0,28.605,72.246,177.754,238.861,281.439,306.5,313.993,304.525,280.123,176.285,124.949,104.09,33.819,0.0,0.0,0.0,0.0,0.0,0.0,0.0,0.0,0.0,0.0,0.0,28.605,99.433,175.779,238.507,282.503,167.881,224.179,49.21,270.90900000000005,242.354,188.79,112.393,34.832,0.0,0.0,0.0,0.0,0.0,0.0,0.0,0.0,0.0,0.0,0.0,27.997,99.838,179.06999999999996,241.95,286.654,215.927,324.118,257.087,122.114,13.011,19.897,18.378,10.784,0.0,0.0,0.0,0.0,0.0,0.0,0.0,0.0,0.0,0.0,0.0,27.997,99.939,176.842,240.228,284.882,267.365,138.973,207.928,289.286,244.025,184.639,95.281,38.781,0.0,0.0,0.0,0.0,0.0,0.0,0.0,0.0,0.0,0.0,0.0,15.948,97.762,173.754,191.929,282.148,198.308,124.848,188.537,240.785,159.426,43.641,2.785,35.895,0.0,0.0,0.0,0.0,0.0,0.0,0.0,0.0,0.0,0.0,0.0,27.997,98.775,177.298,241.747,282.3,221.698,158.161,233.647,244.126,244.228,179.12099999999998,47.489,21.567,0.0,0.0,0.0,0.0,0.0,0.0,0.0,0.0,0.0,0.0,0.0,27.946,99.078,176.589,239.975,284.578,207.725,72.246,276.933,250.91099999999997,183.323,21.719,38.072,27.541,0.0,0.0,0.0,0.0,0.0,0.0,0.0,0.0,0.0,0.0,0.0,17.264,62.475,52.146,56.754,94.421,134.366,259.922,228.026,69.056,13.163,58.82900000000001,42.679,25.719,0.0,0.0,0.0,0.0,0.0,0.0,0.0,0.0,0.0,0.0,0.0,27.238,98.926,176.944,241.545,281.3879999999999,252.429,317.233,307.563,282.502,241.747,187.575,113.153,37.11,0.354,0.0,0.0,0.0,0.0,0.0,0.0,0.0,0.0,0.0,0.0,23.947,98.926,179.981,245.899,293.59,233.95,292.881,224.483,264.023,236.229,190.208,112.039,41.059,0.354,0.0,0.0,0.0,0.0,0.0,0.0,0.0,0.0,0.0,0.0,22.276,98.268,175.273,220.99,281.591,271.82,260.429,291.261,200.33400000000003,209.193,187.525,114.064,37.059,0.405,0.0,0.0,0.0,0.0,0.0,0.0,0.0,0.0,0.0,0.0,26.58,101.863,182.563,245.645,262.454,276.427,339.003,327.662,302.349,259.922,192.131,116.899,36.401,0.759,0.0,0.0,0.0,0.0,0.0,0.0,0.0,0.0,0.0,0.0,23.289,82.27,148.339,215.32,253.391,275.82,291.362,310.55,284.629,244.43,186.208,113.305,37.566,0.304,0.0,0.0,0.0,0.0,0.0,0.0,0.0,0.0,0.0,0.0,24.706,91.282,147.27599999999998,142.112,120.646,196.942,269.035,196.942,249.594,201.852,157.401,39.388,32.25,0.0,0.0,0.0,0.0,0.0,0.0,0.0,0.0,0.0,0.0,0.0,23.947,75.587,178.513,87.485,32.402,23.744,97.104,182.563,309.639,223.825,144.441,102.926,41.616,0.81,0.0,0.0,0.0,0.0,0.0,0.0,0.0,0.0,0.0,0.0,0.0,22.782,91.231,139.93499999999997,252.47999999999996,293.337,336.066,279.769,246.80999999999997,135.48,168.337,87.282,37.414,0.405,0.0,0.0,0.0,0.0,0.0,0.0,0.0,0.0,0.0,0.0,22.529,97.509,148.086,238.76,281.793,307.715,280.933,266.706,287.312,243.418,185.753,114.013,38.629,0.759,0.0,0.0,0.0,0.0,0.0,0.0,0.0,0.0,0.0,0.0,26.174,96.547,174.716,238.102,283.768,312.018,320.422,188.689,293.387,248.278,180.083,116.14,38.67999999999999,1.215,0.0,0.0,0.0,0.0,0.0,0.0,0.0,0.0,0.0,0.0,24.403,96.091,175.931,207.118,106.67,63.234,106.67,4.699,56.185,56.185,56.185,56.185,39.034,1.215,0.0,0.0,0.0,0.0,0.0,0.0,0.0,0.0,0.0,0.0,25.364,56.185,58.04800000000001,58.554,63.475,64.9,81.179,50.931,37.211,114.672,147.782,81.359,27.44,0.0,0.0,0.0,0.0,0.0,0.0,0.0,0.0,0.0,0.0,0.0,21.77,94.927,174.311,240.026,271.323,67.385,60.348,57.665,107.229,139.327,148.693,113.203,38.983,0.0,0.0,0.0,0.0,0.0,0.0,0.0,0.0,0.0,0.0,0.0,15.492,86.978,166.616,238.709,201.599,87.485,234.861,242.861,192.132,197.195,95.382,114.874,21.922,0.0,0.0,0.0,0.0,0.0,0.0,0.0,0.0,0.0,0.0,0.0,27.187,54.577,140.087,186.158,10.581,24.403,34.832,74.929,159.072,238.861,153.351,5.265,39.439,0.0,0.0,0.0,0.0,0.0,0.0,0.0,0.0,0.0,0.0,0.0,23.694,93.813,171.071,235.317,278.655,316.878,326.042,304.829,281.237,208.232,183.12,112.09,43.439,0.0,0.0,0.0,0.0,0.0,0.0,0.0,0.0,0.0,0.0,0.0,24.959,90.269,163.983,232.229,281.338,243.772,266.099,313.891,287.008,243.165,178.766,109.811,37.616,0.0,0.0,0.0,0.0,0.0,0.0,0.0,0.0,0.0,0.0,0.0,24.605,91.029,165.552,228.229,244.481,280.629,270.503,267.061,239.874,208.89,161.097,109.254,41.059,0.0,0.0,0.0,0.0,0.0,0.0,0.0,0.0,0.0,0.0,0.0,23.592,89.257,162.008,223.16699999999997,270.706,226.761,189.196,304.019,46.324,73.208,82.27,113.811,38.224,0.0,0.0,0.0,0.0,0.0,0.0,0.0,0.0,0.0,0.0,0.0,23.744,89.712,163.477,224.989,270.04799999999994,296.982,201.296,188.942,282.502,239.519,183.019,113.912,43.388,0.304,0.0,0.0,0.0,0.0,0.0,0.0,0.0,0.0,0.0,0.0,22.377,91.13,168.185,232.533,278.401,304.829,283.768,268.327,164.59,213.548,170.058,107.28,42.477,0.304,0.0,0.0,0.0,0.0,0.0,0.0,0.0,0.0,0.0,0.0,21.517,86.371,136.29,206.46,255.113,245.645,253.291,184.487,224.584,189.196,165.24900000000002,107.128,14.783,0.0,0.0,0.0,0.0,0.0,0.0,0.0,0.0,0.0,0.0,0.0,5.468,29.01,81.359,94.218,192.588,268.63,250.657,249.29100000000005,226.66,174.007,120.949,92.244,35.49,0.0,0.0,0.0,0.0,0.0,0.0,0.0,0.0,0.0,0.0,0.0,22.175,56.652,87.738,151.883,230.659,232.482,217.091,270.808,267.466,200.232,159.123,82.27,29.212,0.0,0.0,0.0,0.0,0.0,0.0,0.0,0.0,0.0,0.0,0.0,18.935,86.573,159.173,221.496,202.257,235.064,102.217,290.653,257.998,187.373,47.995,21.162,0.0,0.0,0.0,0.0,0.0,0.0,0.0,0.0,0.0,0.0,0.0,0.0,22.023,86.675,159.325,223.42,272.63,167.78,274.148,276.832,176.488,220.483,143.732,96.041,27.592,0.0,0.0,0.0,0.0,0.0,0.0,0.0,0.0,0.0,0.0,0.0,20.707,87.89,165.755,203.624,236.229,249.442,203.574,193.398,240.684,244.278,165.299,107.786,42.173,0.304,0.0,0.0,0.0,0.0,0.0,0.0,0.0,0.0,0.0,0.0,21.314,86.928,162.97,227.976,274.807,302.854,275.515,310.044,285.54,245.949,187.17,114.165,38.73,0.0,0.0,0.0,0.0,0.0,0.0,0.0,0.0,0.0,0.0,0.0,20.96,86.573,142.416,196.536,183.12,75.334,49.818,122.67,241.19,176.741,145.453,113.406,31.187,0.0,0.0,0.0,0.0,0.0,0.0,0.0,0.0,0.0,0.0,0.0,18.023,61.006,165.907,94.37,223.724,222.407,52.349,76.144,145.301,141.049,112.545,62.728,12.252,0.0,0.0,0.0,0.0,0.0,0.0,0.0,0.0,0.0,0.0,0.0,9.265,64.5,23.39,62.778,75.334,142.922,149.301,165.755,175.172,177.095,22.276,56.045,34.882,0.0,0.0,0.0,0.0,0.0,0.0,0.0,0.0,0.0,0.0,0.0,6.784,51.286,77.41,129.202,295.463,248.278,323.713,213.801,134.213,234.609,190.765,115.634,40.3,0.0,0.0,0.0,0.0,0.0,0.0,0.0,0.0,0.0,0.0,0.0,16.96,88.598,172.691,248.48,298.906,131.429,273.035,321.384,295.463,255.417,194.562,88.244,36.958,0.0,0.0,0.0,0.0,0.0,0.0,0.0,0.0,0.0,0.0,0.0,18.428,87.181,167.223,233.545,280.021,308.069,221.293,312.879,193.904,248.885,187.727,113.76,41.008,0.0,0.0,0.0,0.0,0.0,0.0,0.0,0.0,0.0,0.0,0.0,19.441,84.852,138.264,207.725,244.734,273.541,310.347,302.855,139.378,182.158,184.437,111.887,35.692,0.0,0.0,0.0,0.0,0.0,0.0,0.0,0.0,0.0,0.0,0.0,18.732,83.434,159.629,225.293,272.377,300.374,310.043,307.512,283.768,244.178,186.006,112.241,39.844,0.0,0.0,0.0,0.0,0.0,0.0,0.0,0.0,0.0,0.0,0.0,16.707,84.042,164.742,231.976,207.067,111.685,323.1050000000001,312.018,299.716,258.302,196.79,116.14,37.11,0.0,0.0,0.0,0.0,0.0,0.0,0.0,0.0,0.0,0.0,0.0,15.036,83.687,153.655,160.642,74.878,191.069,274.857,248.936,205.903,204.839,139.327,94.218,36.756,0.0,0.0,0.0,0.0,0.0,0.0,0.0,0.0,0.0,0.0,0.0,14.024,68.449,141.707,212.636,234.811,273.997,317.739,266.2,245.139,226.66,185.753,97.003,34.933,0.0,0.0,0.0,0.0,0.0,0.0,0.0,0.0,0.0,0.0,0.0,14.53,83.384,166.109,233.14,280.477,308.272,222.154,40.249,139.074,238.051,196.334,101.711,35.895,0.0,0.0,0.0,0.0,0.0,0.0,0.0,0.0,0.0,0.0,0.0,16.251,66.018,136.847,179.627,246.962,156.28800000000004,129.1,182.867,202.814,172.691,114.773,51.842,21.01,0.0,0.0,0.0,0.0,0.0,0.0,0.0,0.0,0.0,0.0,0.0,7.999,56.804,62.373,65.765,189.196,161.401,164.995,247.924,233.393,222.508,131.227,54.83,35.794,0.0,0.0,0.0,0.0,0.0,0.0,0.0,0.0,0.0,0.0,0.0,15.087,81.612,120.038,119.836,283.718,232.178,230.609,315.157,289.286,249.544,132.239,83.991,11.644,0.0,0.0,0.0,0.0,0.0,0.0,0.0,0.0,0.0,0.0,0.0,14.783,81.662,161.553,228.584,276.123,303.664,313.487,306.348,113.153,247.974,184.386,110.166,35.743,0.0,0.0,0.0,0.0,0.0,0.0,0.0,0.0,0.0,0.0,0.0,13.669,80.802,161.705,228.128,274.959,302.753,240.076,319.81499999999994,282.502,243.62,185.348,110.014,30.782,0.0,0.0,0.0,0.0,0.0,0.0,0.0,0.0,0.0,0.0,0.0,12.758,63.69,161.3,228.685,277.034,304.475,314.195,307.056,283.161,180.336,183.778,107.533,35.186,0.0,0.0,0.0,0.0,0.0,0.0,0.0,0.0,0.0,0.0,0.0,7.645,42.831,138.011,129.86,199.27,247.721,105.609,96.901,124.848,214.205,188.689,109.609,35.844,0.0,0.0,0.0,0.0,0.0,0.0,0.0,0.0,0.0,0.0,0.0,13.264,78.979,161.35,230.66,277.035,242.608,319.81499999999994,220.483,169.198,198.612,185.247,108.039,31.49,0.0,0.0,0.0,0.0,0.0,0.0,0.0,0.0,0.0,0.0,0.0,13.366,78.928,161.705,229.64699999999996,277.591,236.937,235.52,149.908,104.698,124.594,161.856,106.319,34.123,0.0,0.0,0.0,0.0,0.0,0.0,0.0,0.0,0.0,0.0,0.0,13.669,77.865,158.414,226.761,277.085,305.69,222.407,311.36,201.498,223.42,133.657,64.55,23.137,0.0,0.0,0.0,0.0,0.0,0.0,0.0,0.0,0.0,0.0,0.0,13.416,77.764,158.87,226.964,275.465,258.454,267.871,252.936,230.001,242.811,181.449,105.66,33.212,0.0,0.0,0.0,0.0,0.0,0.0,0.0,0.0,0.0,0.0,0.0,11.239,66.12,148.035,223.066,237.747,262.403,216.332,308.829,281.794,239.773,176.741,97.205,26.731,0.0,0.0,0.0,0.0,0.0,0.0,0.0,0.0,0.0,0.0,0.0,6.733,59.386,118.064,220.382,271.617,302.602,315.41,261.897,270.04799999999994,224.078,143.276,93.459,0.0,0.0,0.0,0.0,0.0,0.0,0.0,0.0,0.0,0.0,0.0,0.0,10.429,57.31,125.658,180.336,219.521,233.798,208.637,68.499,115.684,69.816,121.557,103.129,31.845,0.0,0.0,0.0,0.0,0.0,0.0,0.0,0.0,0.0,0.0,0.0,12.353,77.815,161.857,232.685,282.654,248.734,247.823,187.98,294.906,249.19,186.613,107.027,28.908,0.0,0.0,0.0,0.0,0.0,0.0,0.0,0.0,0.0,0.0,0.0,11.239,77.561,162.667,233.191,195.777,203.27,339.053,328.877,291.615,249.645,187.93,107.432,27.946,0.0,0.0,0.0,0.0,0.0,0.0,0.0,0.0,0.0,0.0,0.0,10.885,76.296,160.54,229.394,278.199,306.804,317.992,276.781,227.369,198.713,118.114,89.206,28.959,0.0,0.0,0.0,0.0,0.0,0.0,0.0,0.0,0.0,0.0,0.0,10.936,77.005,162.211,232.128,281.743,310.398,320.068,312.778,289.489,247.164,184.487,104.242,27.44,0.0,0.0,0.0,0.0,0.0,0.0,0.0,0.0,0.0,0.0,0.0,10.277,76.6,162.312,233.039,281.642,309.942,266.959,134.72,112.748,249.645,170.413,91.484,23.187,0.0,0.0,0.0,0.0,0.0,0.0,0.0,0.0,0.0,0.0,0.0,10.176,75.84,161.502,232.381,281.439,141.606,300.222,315.663,63.133,63.588,144.592,77.916,24.858,0.0,0.0,0.0,0.0,0.0,0.0,0.0,0.0,0.0,0.0,0.0,9.771,75.941,162.565,233.444,292.729,325.637,273.3380000000001,209.244,210.813,201.042,79.536,104.85,25.263,0.0,0.0,0.0,0.0,0.0,0.0,0.0,0.0,0.0,0.0,0.0,9.872,50.273,65.107,120.544,161.705,210.56,165.451,114.216,82.877,21.314,95.382,0.759,10.531,0.0,0.0,0.0,0.0,0.0,0.0,0.0,0.0,0.0,0.0,0.0,3.443,16.049,83.941,91.687,142.213,155.629,266.048,177.652,246.304,104.091,52.4,21.01,6.328,0.0,0.0,0.0,0.0,0.0,0.0,0.0,0.0,0.0,0.0,0.0,7.24,43.894,64.905,130.67,228.533,254.05,117.304,217.749,43.995,247.569,176.488,67.436,24.2,0.0,0.0,0.0,0.0,0.0,0.0,0.0,0.0,0.0,0.0,0.0,5.923,50.78,100.445,213.092,276.275,168.134,264.884,198.41,178.007,243.62,172.59000000000003,84.244,19.188,0.0,0.0,0.0,0.0,0.0,0.0,0.0,0.0,0.0,0.0,0.0,8.91,73.461,159.123,230.609,281.237,310.55,321.941,104.647,250.354,241.747,176.184,81.004,20.757,0.0,0.0,0.0,0.0,0.0,0.0,0.0,0.0,0.0,0.0,0.0,8.86,73.967,161.755,235.216,284.325,232.988,249.949,155.072,31.288,57.108,104.85,92.142,20.859,0.0,0.0,0.0,0.0,0.0,0.0,0.0,0.0,0.0,0.0,0.0,2.987,30.984,97.306,108.444,53.159,26.985,48.856,70.221,90.978,90.471,99.99,89.459,19.947,0.0,0.0,0.0,0.0,0.0,0.0,0.0,0.0,0.0,0.0,0.0,8.151,35.591,95.939,151.32599999999996,190.259,226.66,206.865,98.825,173.45,153.149,108.9,54.83,11.999,0.0,0.0,0.0,0.0,0.0,0.0,0.0,0.0,0.0,0.0,0.0,2.126,42.983,99.736,106.116,59.437,141.251,138.669,194.916,201.194,231.571,144.593,74.271,10.784,0.0,0.0,0.0,0.0,0.0,0.0,0.0,0.0,0.0,0.0,0.0,6.987,48.856,113.659,151.37699999999998,205.498,212.991,276.377,261.695,241.899,212.53499999999997,144.137,61.664,12.859,0.0,0.0,0.0,0.0,0.0,0.0,0.0,0.0,0.0,0.0,0.0,7.746,75.03,166.97,243.569,296.981,328.118,282.857,271.01,300.728,214.357,177.197,83.384,16.758,0.0,0.0,0.0,0.0,0.0,0.0,0.0,0.0,0.0,0.0,0.0,7.088,72.651,160.793,234.71,162.97,318.904,239.367,266.2,288.679,178.969,23.542,60.449000000000005,16.302,0.0,0.0,0.0,0.0,0.0,0.0,0.0,0.0,0.0,0.0,0.0,6.177,71.587,128.645,230.71,279.971,154.769,89.56,198.612,286.451,237.14,170.919,36.199,15.998,0.0,0.0,0.0,0.0,0.0,0.0,0.0,0.0,0.0,0.0,0.0,5.468,71.233,156.996,235.115,288.628,319.46,330.902,322.802,294.096,237.089,169.349,86.27,14.986,0.0,0.0,0.0,0.0,0.0,0.0,0.0,0.0,0.0,0.0,0.0,0.0,0.405,111.938,182.867,265.846,294.4,305.335,294.754,229.495,159.275,94.876,44.147,11.189,0.0,0.0,0.0,0.0,0.0,0.0,0.0,0.0,0.0,0.0,0.0,3.595,66.221,145.65599999999998,217.193,155.477,236.431,211.826,305.031,273.237,226.457,161.755,81.46,13.619,0.0,0.0,0.0,0.0,0.0,0.0,0.0,0.0,0.0,0.0,0.0,5.517999999999999,68.398,154.06,226.052,273.44,254.86,314.043,303.462,277.288,230.406,163.73,81.916,13.366,0.0,0.0,0.0,0.0,0.0,0.0,0.0,0.0,0.0,0.0,0.0,5.468,69.714,155.629,228.483,279.414,233.495,195.524,263.213,280.781,231.014,163.021,68.246,12.859,0.0,0.0,0.0,0.0,0.0,0.0,0.0,0.0,0.0,0.0,0.0,5.063,68.803,154.61700000000002,227.368,278.3,307.107,167.527,309.791,278.25000000000006,41.16,168.691,81.561,11.897,0.0,0.0,0.0,0.0,0.0,0.0,0.0,0.0,0.0,0.0,0.0,4.658,68.702,155.629,183.12,225.091,169.704,248.278,224.229,226.812,232.482,162.363,78.979,9.923,0.0,0.0,0.0,0.0,0.0,0.0,0.0,0.0,0.0,0.0,0.0,4.86,58.82900000000001,126.772,195.524,131.328,191.525,185.956,239.368,122.367,75.941,88.801,40.35,4.506,0.0,0.0,0.0,0.0,0.0,0.0,0.0,0.0,0.0,0.0,0.0,4.658,61.715,136.897,169.198,227.926,96.446,35.591,80.144,203.574,188.234,86.421,51.691,4.556,0.0,0.0,0.0,0.0,0.0,0.0,0.0,0.0,0.0,0.0,0.0,3.24,66.626,114.469,145.403,208.485,232.837,142.466,42.78,49.463,145.909,106.267,11.037,0.0,0.0,0.0,0.0,0.0,0.0,0.0,0.0,0.0,0.0,0.0,0.0,0.0,0.456,14.48,112.444,100.597,154.364,180.842,246.80999999999997,237.09,182.867,123.38,51.89300000000001,5.316,0.0,0.0,0.0,0.0,0.0,0.0,0.0,0.0,0.0,0.0,0.0,2.126,27.238,133.252,195.17,186.512,197.448,192.942,151.32599999999996,72.296,92.598,56.551,44.907,2.481,0.0,0.0,0.0,0.0,0.0,0.0,0.0,0.0,0.0,0.0,0.0,0.0,0.0,45.261,15.745,91.282,20.757,35.49,229.951,225.546,212.839,134.518,71.79,6.379,0.0,0.0,0.0,0.0,0.0,0.0,0.0,0.0,0.0,0.0,0.0,0.456,46.172,130.721,167.476,220.433,188.841,264.378,200.84,191.17,166.616,138.821,33.921,1.215,0.0,0.0,0.0,0.0,0.0,0.0,0.0,0.0,0.0,0.0,0.0,1.367,63.335,150.162,187.474,192.537,144.491,179.374,177.349,194.461,173.653,88.446,57.31,2.025,0.0,0.0,0.0,0.0,0.0,0.0,0.0,0.0,0.0,0.0,0.0,0.0,0.0,36.806,54.88,140.441,170.97000000000003,208.788,232.583,174.868,231.267,18.023,11.29,0.0,0.0,0.0,0.0,0.0,0.0,0.0,0.0,0.0,0.0,0.0,0.0,2.177,64.803,65.816,230.255,277.996,305.487,313.588,220.989,273.744,155.477,111.178,47.691,2.936,0.0,0.0,0.0,0.0,0.0,0.0,0.0,0.0,0.0,0.0,0.0,1.671,64.702,152.13599999999997,224.027,265.998,239.519,306.803,292.071,263.972,123.43,123.38,53.007,1.418,0.0,0.0,0.0,0.0,0.0,0.0,0.0,0.0,0.0,0.0,0.0,0.608,63.335,149.75700000000003,221.192,270.858,298.601,229.64699999999996,151.883,95.788,141.2,146.061,62.019,1.367,0.0,0.0,0.0,0.0,0.0,0.0,0.0,0.0,0.0,0.0,0.0,0.0,62.88,150.921,224.635,276.326,190.107,236.026,19.644,5.569,81.055,82.017,25.111,0.0,0.0,0.0,0.0,0.0,0.0,0.0,0.0,0.0,0.0,0.0,0.0,0.0,59.994,87.282,129.252,279.515,227.26800000000003,120.696,120.139,115.735,172.286,82.979,42.477,0.0,0.0,0.0,0.0,0.0,0.0,0.0,0.0,0.0,0.0,0.0,0.0,0.0,58.323,0.354,237.342,222.306,24.706,82.169,160.844,138.821,146.567,109.862,4.86,0.0,0.0,0.0,0.0,0.0,0.0,0.0,0.0,0.0,0.0,0.0,0.0,0.0,70.98,167.729,243.772,306.651,337.332,345.634,333.535,299.007,241.747,157.04699999999997,64.145,0.0,0.0,0.0,0.0,0.0,0.0,0.0,0.0,0.0,0.0,0.0,0.0,0.0,69.41,165.755,241.443,290.957,319.612,326.599,312.524,280.376,228.128,151.478,60.703,0.0,0.0,0.0,0.0,0.0,0.0,0.0,0.0,0.0,0.0,0.0,0.0,0.0,64.702,154.819,234.457,276.579,303.311,269.947,257.239,195.625,156.49,122.721,53.362,0.0,0.0,0.0,0.0,0.0,0.0,0.0,0.0,0.0,0.0,0.0,0.0,0.0,60.449000000000005,148.136,226.761,280.325,298.855,305.842,292.021,259.771,208.282,135.277,52.096,0.0,0.0,0.0,0.0,0.0,0.0,0.0,0.0,0.0,0.0,0.0,0.0,0.0,59.538,148.137,220.99,271.01,297.185,304.576,132.442,233.545,137.91,134.416,47.641,0.0,0.0,0.0,0.0,0.0,0.0,0.0,0.0,0.0,0.0,0.0,0.0,0.0,58.323,99.736,220.23,270.149,201.852,247.873,213.092,236.532,109.406,109.913,47.337,0.0,0.0,0.0,0.0,0.0,0.0,0.0,0.0,0.0,0.0,0.0,0.0,0.0,64.55,158.819,234.102,286.754,315.613,323.055,321.334,286.958,230.103,146.01,54.425,0.0,0.0,0.0,0.0,0.0,0.0,0.0,0.0,0.0,0.0,0.0,0.0,0.0,67.082,163.679,240.026,292.8299999999999,321.486,327.915,313.537,279.86999999999995,225.344,146.162,40.451,0.0,0.0,0.0,0.0,0.0,0.0,0.0,0.0,0.0,0.0,0.0,0.0,0.0,64.652,158.363,233.191,291.108,320.574,327.15599999999995,310.803,276.63000000000005,219.42,139.378,48.349,0.0,0.0,0.0,0.0,0.0,0.0,0.0,0.0,0.0,0.0,0.0,0.0,0.0,62.778,94.218,237.95,290.653,332.269,340.724,325.941,292.07,232.178,144.238,51.185,0.0,0.0,0.0,0.0,0.0,0.0,0.0,0.0,0.0,0.0,0.0,0.0,0.0,64.803,161.452,238.001,288.223,316.878,322.954,308.221,274.098,217.547,138.618,48.046,0.0,0.0,0.0,0.0,0.0,0.0,0.0,0.0,0.0,0.0,0.0,0.0,0.0,37.869,92.446,122.57,215.876,241.342,200.89,195.119,202.055,161.553,103.432,33.921,0.0,0.0,0.0,0.0,0.0,0.0,0.0,0.0,0.0,0.0,0.0,0.0,0.0,54.526,58.171,220.99,132.493,315.208,223.673,203.523,275.668,214.914,130.366,42.223,0.0,0.0,0.0,0.0,0.0,0.0,0.0,0.0,0.0,0.0,0.0,0.0,0.0,30.933,83.789,105.205,139.327,93.762,92.952,125.962,108.393,105.407,36.148,18.833,0.0,0.0,0.0,0.0,0.0,0.0,0.0,0.0,0.0,0.0,0.0,0.0,0.0,18.074,28.351,64.196,150.111,186.563,236.785,257.34,196.131,166.97,87.434,30.68,0.0,0.0,0.0,0.0,0.0,0.0,0.0,0.0,0.0,0.0,0.0,0.0,0.0,40.198,78.321,150.769,203.675,157.756,214.712,206.763,131.024,115.583,69.562,21.922,0.0,0.0,0.0,0.0,0.0,0.0,0.0,0.0,0.0,0.0,0.0,0.0,0.0,55.083,145.706,220.281,270.402,297.842,57.969,87.181,262.555,200.789,123.177,36.553,0.0,0.0,0.0,0.0,0.0,0.0,0.0,0.0,0.0,0.0,0.0,0.0,0.0,55.539,146.719,221.901,271.06,298.248,303.665,289.286,195.17,197.195,117.0,33.667,0.0,0.0,0.0,0.0,0.0,0.0,0.0,0.0,0.0,0.0,0.0,0.0,0.0,46.881,128.746,171.881,156.642,195.676,133.505,176.944,130.619,96.395,77.815,34.832,0.0,0.0,0.0,0.0,0.0,0.0,0.0,0.0,0.0,0.0,0.0,0.0,0.0,8.556,42.578,85.054,239.722,309.436,313.841,298.349,263.264,203.827,123.481,34.781,0.0,0.0,0.0,0.0,0.0,0.0,0.0,0.0,0.0,0.0,0.0,0.0,0.0,2.278,70.474,134.67,279.161,244.987,246.152,297.791,258.96,199.27,118.367,32.047,0.0,0.0,0.0,0.0,0.0,0.0,0.0,0.0,0.0,0.0,0.0,0.0,0.0,53.007,145.959,222.559,273.794,298.247,300.475,290.602,247.772,186.158,108.495,27.491,0.0,0.0,0.0,0.0,0.0,0.0,0.0,0.0,0.0,0.0,0.0,0.0,0.0,51.741,142.821,217.142,267.618,295.159,300.475,286.147,249.898,190.613,110.824,28.149,0.0,0.0,0.0,0.0,0.0,0.0,0.0,0.0,0.0,0.0,0.0,0.0,0.0,50.172,140.036,221.496,276.275,305.892,311.715,296.779,140.036,199.27,112.343,28.098,0.0,0.0,0.0,0.0,0.0,0.0,0.0,0.0,0.0,0.0,0.0,0.0,0.0,49.818,140.69399999999996,222.154,277.946,295.666,300.931,228.28,170.767,166.97,85.004,22.377,0.0,0.0,0.0,0.0,0.0,0.0,0.0,0.0,0.0,0.0,0.0,0.0,0.0,42.578,129.354,215.775,253.897,252.429,247.823,285.692,183.829,188.385,71.689,21.213,0.0,0.0,0.0,0.0,0.0,0.0,0.0,0.0,0.0,0.0,0.0,0.0,0.0,54.779,156.23699999999997,239.773,296.9309999999999,315.663,320.929,253.29,266.858,203.827,119.38,28.402,0.0,0.0,0.0,0.0,0.0,0.0,0.0,0.0,0.0,0.0,0.0,0.0,0.0,18.277,22.58,134.518,132.442,190.309,310.803,292.223,255.214,195.018,112.241,25.82,0.0,0.0,0.0,0.0,0.0,0.0,0.0,0.0,0.0,0.0,0.0,0.0,0.0,49.716,143.985,179.93099999999998,249.088,278.503,262.15,189.196,89.915,103.787,22.934,6.379,0.0,0.0,0.0,0.0,0.0,0.0,0.0,0.0,0.0,0.0,0.0,0.0,0.0,49.919,145.251,224.179,275.364,303.665,309.031,293.69100000000003,256.53,196.283,113.659,25.719,0.0,0.0,0.0,0.0,0.0,0.0,0.0,0.0,0.0,0.0,0.0,0.0,0.0,52.653,151.934,231.115,290.704,317.334,321.84,305.943,261.441,189.803,106.622,22.631,0.0,0.0,0.0,0.0,0.0,0.0,0.0,0.0,0.0,0.0,0.0,0.0,0.0,50.02,146.567,225.749,286.755,317.031,322.549,304.37399999999997,264.529,200.536,111.28,24.656,0.0,0.0,0.0,0.0,0.0,0.0,0.0,0.0,0.0,0.0,0.0,0.0,0.0,26.174,48.198,224.23,279.92,309.23400000000004,314.398,297.589,257.644,189.196,106.318,22.175,0.0,0.0,0.0,0.0,0.0,0.0,0.0,0.0,0.0,0.0,0.0,0.0,0.0,46.426,140.644,216.788,274.655,292.881,98.268,287.21,242.0,122.418,98.572,18.277,0.0,0.0,0.0,0.0,0.0,0.0,0.0,0.0,0.0,0.0,0.0,0.0,0.0,44.451,138.568,217.294,272.68,301.639,306.652,288.83099999999996,251.012,180.994,100.901,19.644,0.0,0.0,0.0,0.0,0.0,0.0,0.0,0.0,0.0,0.0,0.0,0.0,0.0,42.223,135.277,213.244,267.921,192.132,152.035,223.217,155.326,175.475,70.221,9.771,0.0,0.0,0.0,0.0,0.0,0.0,0.0,0.0,0.0,0.0,0.0,0.0,0.0,41.16,134.113,169.451,273.237,301.538,307.259,289.438,250.10100000000003,188.031,102.977,19.036,0.0,0.0,0.0,0.0,0.0,0.0,0.0,0.0,0.0,0.0,0.0,0.0,0.0,23.744,80.295,138.416,169.603,212.889,252.47999999999996,230.609,195.98,137.454,40.451,4.708,0.0,0.0,0.0,0.0,0.0,0.0,0.0,0.0,0.0,0.0,0.0,0.0,0.0,2.835,32.047,44.147,83.789,96.598,96.496,96.699,68.398,45.361999999999995,24.251,19.036,0.0,0.0,0.0,0.0,0.0,0.0,0.0,0.0,0.0,0.0,0.0,0.0,0.0,46.021,149.75700000000003,242.709,303.665,337.636,344.622,325.029,278.655,207.725,110.824,20.504,0.0,0.0,0.0,0.0,0.0,0.0,0.0,0.0,0.0,0.0,0.0,0.0,0.0,45.666,151.275,242.152,302.855,335.611,341.635,321.384,275.313,205.295,108.546,19.239,0.0,0.0,0.0,0.0,0.0,0.0,0.0,0.0,0.0,0.0,0.0,0.0,0.0,41.161,137.91,222.66,278.604,306.601,312.322,297.235,254.1,188.942,96.851,14.074,0.0,0.0,0.0,0.0,0.0,0.0,0.0,0.0,0.0,0.0,0.0,0.0,0.0,5.569,121.051,50.273,270.352,300.272,308.47499999999997,296.071,253.493,185.60099999999997,95.585,14.53,0.0,0.0,0.0,0.0,0.0,0.0,0.0,0.0,0.0,0.0,0.0,0.0,0.0,35.895,127.835,206.561,265.846,301.13400000000007,304.93,286.502,243.519,178.462,91.383,12.353,0.0,0.0,0.0,0.0,0.0,0.0,0.0,0.0,0.0,0.0,0.0,0.0,0.0,34.224,123.531,201.144,252.784,280.983,284.882,269.238,231.318,170.21,89.105,11.644,0.0,0.0,0.0,0.0,0.0,0.0,0.0,0.0,0.0,0.0,0.0,0.0,0.0,33.87,122.316,199.625,259.568,288.527,294.55199999999996,121.101,84.244,169.501,84.649,6.835,0.0,0.0,0.0,0.0,0.0,0.0,0.0,0.0,0.0,0.0,0.0,0.0,0.0,34.326,129.708,214.611,272.478,294.046,299.26,281.3879999999999,241.696,176.437,90.674,11.239,0.0,0.0,0.0,0.0,0.0,0.0,0.0,0.0,0.0,0.0,0.0,0.0,0.0,30.275,119.228,200.89,174.767,190.967,300.12,188.031,252.176,177.703,91.434,11.492,0.0,0.0,0.0,0.0,0.0,0.0,0.0,0.0,0.0,0.0,0.0,0.0,0.0,31.592,123.278,211.168,174.665,306.702,221.344,225.293,256.277,128.898,93.56,10.48,0.0,0.0,0.0,0.0,0.0,0.0,0.0,0.0,0.0,0.0,0.0,0.0,0.0,34.68,131.126,214.408,269.593,300.071,305.74,288.527,247.772,182.968,93.914,11.695,0.0,0.0,0.0,0.0,0.0,0.0,0.0,0.0,0.0,0.0,0.0,0.0,0.0,35.439,133.454,215.37,270.149,299.21,304.626,285.793,243.823,156.844,81.359,10.126,0.0,0.0,0.0,0.0,0.0,0.0,0.0,0.0,0.0,0.0,0.0,0.0,0.0,33.414,128.088,209.801,262.808,292.121,297.185,280.831,240.481,176.387,89.763,9.366,0.0,0.0,0.0,0.0,0.0,0.0,0.0,0.0,0.0,0.0,0.0,0.0,0.0,30.275,122.418,204.333,259.922,289.539,294.805,213.547,117.051,117.102,81.865,6.48,0.0,0.0,0.0,0.0,0.0,0.0,0.0,0.0,0.0,0.0,0.0,0.0,0.0,13.113,97.003,156.844,203.574,188.639,181.601,172.488,131.581,97.61,31.794,0.051,0.0,0.0,0.0,0.0,0.0,0.0,0.0,0.0,0.0,0.0,0.0,0.0,0.0,25.263,50.83,127.177,202.004,278.047,196.233,196.941,228.382,98.015,82.523,6.632,0.0,0.0,0.0,0.0,0.0,0.0,0.0,0.0,0.0,0.0,0.0,0.0,0.0,2.785,15.138,34.376,83.333,87.839,111.28,153.047,103.027,73.157,5.67,0.0,0.0,0.0,0.0,0.0,0.0,0.0,0.0,0.0,0.0,0.0,0.0,0.0,0.0,24.149,113.001,51.033,124.645,118.621,69.107,62.272,45.109,32.705,85.105,4.658,0.0,0.0,0.0,0.0,0.0,0.0,0.0,0.0,0.0,0.0,0.0,0.0,0.0,0.0,10.531,59.082,110.824,151.63,125.962,81.865,77.916,56.551,22.833,0.0,0.0,0.0,0.0,0.0,0.0,0.0,0.0,0.0,0.0,0.0,0.0,0.0,0.0,23.34,112.394,197.903,113.355,293.69100000000003,191.929,125.455,85.561,172.59000000000003,4.0,0.0,0.0,0.0,0.0,0.0,0.0,0.0,0.0,0.0,0.0,0.0,0.0,0.0,0.0,24.403,113.406,197.549,256.429,287.565,294.855,277.338,235.52,171.425,82.067,0.0,0.0,0.0,0.0,0.0,0.0,0.0,0.0,0.0,0.0,0.0,0.0,0.0,0.0,24.909,114.216,200.485,256.378,286.603,259.112,179.424,212.53499999999997,146.46599999999998,71.334,0.0,0.0,0.0,0.0,0.0,0.0,0.0,0.0,0.0,0.0,0.0,0.0,0.0,0.0,22.833,19.644,44.502,109.356,132.442,167.62799999999996,192.638,186.816,86.472,14.48,0.0,0.0,0.0,0.0,0.0,0.0,0.0,0.0,0.0,0.0,0.0,0.0,0.0,0.0,20.656,106.267,187.322,242.304,271.66799999999995,287.1089999999999,272.175,230.913,165.147,78.422,0.0,0.0,0.0,0.0,0.0,0.0,0.0,0.0,0.0,0.0,0.0,0.0,0.0,0.0,22.124,111.026,193.347,256.125,289.135,296.222,278.654,237.899,167.324,82.27,0.0,0.0,0.0,0.0,0.0,0.0,0.0,0.0,0.0,0.0,0.0,0.0,0.0,0.0,21.314,107.28,188.638,244.026,283.211,290.4,274.14899999999994,233.74799999999996,164.388,80.093,0.0,0.0,0.0,0.0,0.0,0.0,0.0,0.0,0.0,0.0,0.0,0.0,0.0,0.0,19.897,111.988,203.219,266.555,301.386,309.436,291.767,249.949,181.652,88.649,0.0,0.0,0.0,0.0,0.0,0.0,0.0,0.0,0.0,0.0,0.0,0.0,0.0,0.0,23.947,115.38,201.347,259.669,290.957,298.298,281.338,240.431,175.01999999999998,86.877,0.0,0.0,0.0,0.0,0.0,0.0,0.0,0.0,0.0,0.0,0.0,0.0,0.0,0.0,21.314,110.824,195.372,252.227,282.401,288.375,223.015,163.831,167.67899999999997,80.954,0.0,0.0,0.0,0.0,0.0,0.0,0.0,0.0,0.0,0.0,0.0,0.0,0.0,0.0,2.379,26.63,93.205,182.057,176.741,205.7,113.153,62.981,46.881,25.111,0.0,0.0,0.0,0.0,0.0,0.0,0.0,0.0,0.0,0.0,0.0,0.0,0.0,0.0,14.277,6.885,29.87,43.742,60.449000000000005,52.653,61.158,51.741,49.413,80.802,0.0,0.0,0.0,0.0,0.0,0.0,0.0,0.0,0.0,0.0,0.0,0.0,0.0,0.0,9.062,93.205,180.639,248.025,272.022,277.034,260.074,218.711,156.136,73.461,0.0,0.0,0.0,0.0,0.0,0.0,0.0,0.0,0.0,0.0,0.0,0.0,0.0,0.0,3.797,76.954,150.51599999999996,235.824,265.491,212.585,132.796,129.455,161.857,77.663,0.0,0.0,0.0,0.0,0.0,0.0,0.0,0.0,0.0,0.0,0.0,0.0,0.0,0.0,0.658,23.39,109.204,162.616,220.483,215.42,200.587,154.921,89.712,62.728,0.0,0.0,0.0,0.0,0.0,0.0,0.0,0.0,0.0,0.0,0.0,0.0,0.0,0.0,0.0,22.58,173.957,234.052,266.959,274.301,259.922,84.396,162.869,76.65,0.0,0.0,0.0,0.0,0.0,0.0,0.0,0.0,0.0,0.0,0.0,0.0,0.0,0.0,10.936,89.864,170.008,232.735,265.542,273.339,203.017,150.01,158.414,73.613,0.0,0.0,0.0,0.0,0.0,0.0,0.0,0.0,0.0,0.0,0.0,0.0,0.0,0.0,4.506,40.755,71.993,125.81,191.069,203.878,196.688,158.515,124.696,52.602,0.0,0.0,0.0,0.0,0.0,0.0,0.0,0.0,0.0,0.0,0.0,0.0,0.0,0.0,5.265,78.068,113.71,193.499,253.088,204.232,215.37,154.212,113.203,34.224,0.0,0.0,0.0,0.0,0.0,0.0,0.0,0.0,0.0,0.0,0.0,0.0,0.0,0.0,6.733,82.979,161.603,223.92599999999996,121.962,113.558,184.69,209.852,147.58,67.841,0.0,0.0,0.0,0.0,0.0,0.0,0.0,0.0,0.0,0.0,0.0,0.0,0.0,0.0,5.67,80.346,158.211,13.518,80.144,162.515,250.505,73.967,4.556,0.0,0.0,0.0,0.0,0.0,0.0,0.0,0.0,0.0,0.0,0.0,0.0,0.0,0.0,0.0,0.0,80.7,161.198,223.572,257.29,266.808,253.645,215.471,151.124,73.359,0.0,0.0,0.0,0.0,0.0,0.0,0.0,0.0,0.0,0.0,0.0,0.0,0.0,0.0,0.0,81.004,159.983,221.243,255.062,265.542,249.949,123.835,47.894,26.934,0.0,0.0,0.0,0.0,0.0,0.0,0.0,0.0,0.0,0.0,0.0,0.0,0.0,0.0,0.0,33.313,79.688,159.679,254.353,272.174,183.627,161.806,122.57,76.194,0.0,0.0,0.0,0.0,0.0,0.0,0.0,0.0,0.0,0.0,0.0,0.0,0.0,0.0,0.0,87.13,173.906,99.23,182.26,169.248,152.946,223.369,160.186,78.777,0.0,0.0,0.0,0.0,0.0,0.0,0.0,0.0,0.0,0.0,0.0,0.0,0.0,0.0,0.0,88.041,180.234,247.924,288.679,301.791,287.818,249.189,183.12,91.332,0.0,0.0,0.0,0.0,0.0,0.0,0.0,0.0,0.0,0.0,0.0,0.0,0.0,0.0,0.0,90.472,178.766,241.039,235.36799999999997,214.762,209.801,230.862,166.464,82.624,0.0,0.0,0.0,0.0,0.0,0.0,0.0,0.0,0.0,0.0,0.0,0.0,0.0,0.0,0.0,33.262,85.105,160.33800000000002,140.542,21.517,52.198,26.478,28.655,24.554,0.0,0.0,0.0,0.0,0.0,0.0,0.0,0.0,0.0,0.0,0.0,0.0,0.0,0.0,0.0,4.151,19.745,61.512,86.624,40.148,54.222,84.244,61.513,34.832,0.0,0.0,0.0,0.0,0.0,0.0,0.0,0.0,0.0,0.0,0.0,0.0,0.0,0.0,0.0,87.687,178.159,242.506,277.997,289.084,284.477,237.089,175.577,90.269,0.0,0.0,0.0,0.0,0.0,0.0,0.0,0.0,0.0,0.0,0.0,0.0,0.0,0.0,0.0,87.231,176.235,239.165,273.643,284.781,272.984,236.33,175.627,91.535,0.0,0.0,0.0,0.0,0.0,0.0,0.0,0.0,0.0,0.0,0.0,0.0,0.0,0.0,0.0,81.612,176.184,244.43,284.476,296.475,283.565,244.329,175.222,90.168,0.0,0.0,0.0,0.0,0.0,0.0,0.0,0.0,0.0,0.0,0.0,0.0,0.0,0.0,0.0,86.27,176.336,238.861,273.339,284.578,271.516,235.267,175.374,90.978,0.0,0.0,0.0,0.0,0.0,0.0,0.0,0.0,0.0,0.0,0.0,0.0,0.0,0.0,0.0,73.815,155.933,216.788,250.455,260.429,248.025,159.325,157.452,78.979,5.316,0.0,0.0,0.0,0.0,0.0,0.0,0.0,0.0,0.0,0.0,0.0,0.0,0.0,0.0,66.018,150.56700000000004,212.18,249.341,260.935,249.341,215.421,63.993,78.068,4.405,0.0,0.0,0.0,0.0,0.0,0.0,0.0,0.0,0.0,0.0,0.0,0.0,0.0,0.0,64.55,47.641,48.653,36.047,87.383,81.511,100.648,67.335,78.777,5.316,0.0,0.0,0.0,0.0,0.0,0.0,0.0,0.0,0.0,0.0,0.0,0.0,0.0,0.0,36.604,63.993,64.095,64.095,68.651,56.349,47.843,50.425,15.897,0.0,0.0,0.0,0.0,0.0,0.0,0.0,0.0,0.0,0.0,0.0,0.0,0.0,0.0,0.0,86.371,184.538,253.189,294.704,308.17,295.564,257.644,193.296,102.015,15.239,0.0,0.0,0.0,0.0,0.0,0.0,0.0,0.0,0.0,0.0,0.0,0.0,0.0,0.0,45.666,137.1,190.41,241.241,258.859,277.946,238.001,174.868,41.667,1.013,0.0,0.0,0.0,0.0,0.0,0.0,0.0,0.0,0.0,0.0,0.0,0.0,0.0,0.0,7.594,4.303,81.105,78.017,145.403,45.464,73.866,87.89,36.654,0.608,0.0,0.0,0.0,0.0,0.0,0.0,0.0,0.0,0.0,0.0,0.0,0.0,0.0,0.0,1.569,39.49,114.418,98.623,131.379,150.82,61.209,48.299,5.468,0.0,0.0,0.0,0.0,0.0,0.0,0.0,0.0,0.0,0.0,0.0,0.0,0.0,0.0,0.0,12.252,53.058,38.02100000000001,88.902,75.385,73.106,96.193,57.057,0.0,0.0,0.0,0.0,0.0,0.0,0.0,0.0,0.0,0.0,0.0,0.0,0.0,0.0,0.0,0.0,23.947,87.231,123.987,163.224,268.833,257.695,232.938,171.324,92.649,14.631,0.0,0.0,0.0,0.0,0.0,0.0,0.0,0.0,0.0,0.0,0.0,0.0,0.0,0.0,38.781,128.392,224.989,219.167,113.608,119.734,122.62,34.933,38.831,1.873,0.0,0.0,0.0,0.0,0.0,0.0,0.0,0.0,0.0,0.0,0.0,0.0,0.0,0.0,1.974,21.162,16.1,40.907,74.423,65.715,87.383,39.844,49.818,3.24,0.0,0.0,0.0,0.0,0.0,0.0]
...